*SPEF "ieee 1481-1999"
*DESIGN "FA_Reg"
*DATE "14:30:45 Saturday March 28, 2026"
*VENDOR "The OpenROAD Project"
*PROGRAM "OpenROAD"
*VERSION "edf00dff99f6c40d67a30c0e22a8191c5d2ed9d6"
*DESIGN_FLOW "NAME_SCOPE LOCAL" "PIN_CAP NONE"
*DIVIDER /
*DELIMITER :
*BUS_DELIMITER []
*T_UNIT 1 NS
*C_UNIT 1 PF
*R_UNIT 1 OHM
*L_UNIT 1 HENRY

*NAME_MAP
*3 a
*4 b
*5 cin
*6 clk
*7 cout
*8 rst_n
*9 sum
*10 _0_
*11 _1_
*12 _2_
*13 clknet_0_clk
*14 clknet_1_0__leaf_clk
*15 clknet_1_1__leaf_clk
*16 cout_comb
*17 net1
*18 net2
*19 net3
*20 net4
*21 net5
*22 net6
*23 sum_comb
*24 FILLER_0_15
*25 FILLER_0_27
*26 FILLER_0_29
*27 FILLER_0_3
*28 FILLER_0_41
*29 FILLER_0_53
*30 FILLER_0_57
*31 FILLER_0_80
*32 FILLER_1_15
*33 FILLER_1_27
*34 FILLER_1_3
*35 FILLER_1_39
*36 FILLER_1_51
*37 FILLER_1_55
*38 FILLER_1_57
*39 FILLER_1_69
*40 FILLER_2_15
*41 FILLER_2_27
*42 FILLER_2_29
*43 FILLER_2_3
*44 FILLER_2_41
*45 FILLER_2_53
*46 FILLER_2_65
*47 FILLER_2_77
*48 FILLER_3_15
*49 FILLER_3_27
*50 FILLER_3_3
*51 FILLER_3_39
*52 FILLER_3_51
*53 FILLER_3_55
*54 FILLER_3_57
*55 FILLER_3_79
*56 FILLER_4_18
*57 FILLER_4_22
*58 FILLER_4_29
*59 FILLER_4_41
*60 FILLER_4_53
*61 FILLER_4_59
*62 FILLER_4_6
*63 FILLER_4_80
*64 FILLER_5_12
*65 FILLER_5_20
*66 FILLER_5_35
*67 FILLER_5_47
*68 FILLER_5_55
*69 FILLER_5_57
*70 FILLER_5_6
*71 FILLER_5_79
*72 FILLER_6_18
*73 FILLER_6_26
*74 FILLER_6_29
*75 FILLER_6_41
*76 FILLER_6_53
*77 FILLER_6_6
*78 FILLER_6_65
*79 FILLER_7_15
*80 FILLER_7_27
*81 FILLER_7_3
*82 FILLER_7_39
*83 FILLER_7_51
*84 FILLER_7_55
*85 FILLER_7_57
*86 FILLER_7_69
*87 FILLER_8_15
*88 FILLER_8_27
*89 FILLER_8_29
*90 FILLER_8_3
*91 FILLER_8_41
*92 FILLER_8_53
*93 FILLER_8_65
*94 FILLER_8_77
*95 FILLER_9_15
*96 FILLER_9_27
*97 FILLER_9_29
*98 FILLER_9_3
*99 FILLER_9_41
*100 FILLER_9_53
*101 FILLER_9_57
*102 FILLER_9_80
*103 PHY_EDGE_ROW_0_Left_10
*104 PHY_EDGE_ROW_0_Right_0
*105 PHY_EDGE_ROW_1_Left_11
*106 PHY_EDGE_ROW_1_Right_1
*107 PHY_EDGE_ROW_2_Left_12
*108 PHY_EDGE_ROW_2_Right_2
*109 PHY_EDGE_ROW_3_Left_13
*110 PHY_EDGE_ROW_3_Right_3
*111 PHY_EDGE_ROW_4_Left_14
*112 PHY_EDGE_ROW_4_Right_4
*113 PHY_EDGE_ROW_5_Left_15
*114 PHY_EDGE_ROW_5_Right_5
*115 PHY_EDGE_ROW_6_Left_16
*116 PHY_EDGE_ROW_6_Right_6
*117 PHY_EDGE_ROW_7_Left_17
*118 PHY_EDGE_ROW_7_Right_7
*119 PHY_EDGE_ROW_8_Left_18
*120 PHY_EDGE_ROW_8_Right_8
*121 PHY_EDGE_ROW_9_Left_19
*122 PHY_EDGE_ROW_9_Right_9
*123 TAP_TAPCELL_ROW_0_20
*124 TAP_TAPCELL_ROW_0_21
*125 TAP_TAPCELL_ROW_1_22
*126 TAP_TAPCELL_ROW_2_23
*127 TAP_TAPCELL_ROW_3_24
*128 TAP_TAPCELL_ROW_4_25
*129 TAP_TAPCELL_ROW_5_26
*130 TAP_TAPCELL_ROW_6_27
*131 TAP_TAPCELL_ROW_7_28
*132 TAP_TAPCELL_ROW_8_29
*133 TAP_TAPCELL_ROW_9_30
*134 TAP_TAPCELL_ROW_9_31
*135 _3_
*136 _4_
*137 _5_
*138 _6_
*139 _7_
*140 _8_
*141 _9_
*142 clkbuf_0_clk
*143 clkbuf_1_0__f_clk
*144 clkbuf_1_1__f_clk
*145 input1
*146 input2
*147 input3
*148 input4
*149 output5
*150 output6

*PORTS
a I
b I
cin I
clk I
cout O
rst_n I
sum O

*D_NET *3 0.000733319
*CONN
*P a I
*I *145:A I *D sky130_fd_sc_hd__buf_1
*CAP
1 a 0.000352215
2 *145:A 0
3 *3:17 0.000352215
4 *3:17 *4:17 2.88889e-05
*RES
1 a *3:17 28.2148 
2 *3:17 *145:A 23 
*END

*D_NET *4 0.00071699
*CONN
*P b I
*I *146:A I *D sky130_fd_sc_hd__buf_1
*CAP
1 b 0.000330094
2 *146:A 0
3 *4:17 0.000330094
4 *4:17 *147:A 2.79122e-05
5 *3:17 *4:17 2.88889e-05
*RES
1 b *4:17 27.8627 
2 *4:17 *146:A 23 
*END

*D_NET *5 0.000564664
*CONN
*P cin I
*I *147:A I *D sky130_fd_sc_hd__buf_1
*CAP
1 cin 0.000268376
2 *147:A 0.000268376
3 *4:17 *147:A 2.79122e-05
*RES
1 cin *147:A 47.7832 
*END

*D_NET *6 0.00173573
*CONN
*P clk I
*I *142:A I *D sky130_fd_sc_hd__clkbuf_16
*CAP
1 clk 0.000513241
2 *142:A 0
3 *6:11 0.000513241
4 *6:11 cout 9.31034e-05
5 *6:11 *141:RESET_B 0.000253061
6 *6:11 *9:10 2.72055e-05
7 *6:11 *21:8 0.000138718
8 *6:11 *22:10 0.00019716
*RES
1 clk *6:11 32.2641 
2 *6:11 *142:A 23 
*END

*D_NET *7 0.000718243
*CONN
*P cout O
*I *149:X O *D sky130_fd_sc_hd__buf_2
*CAP
1 cout 0.000245655
2 *149:X 0.000245655
3 cout sum 5.99754e-05
4 cout *150:A 5.3304e-05
5 cout *8:11 0
6 cout *22:10 2.05503e-05
7 *6:11 cout 9.31034e-05
*RES
1 *149:X cout 47.7004 
*END

*D_NET *8 0.000883552
*CONN
*P rst_n I
*I *148:A I *D sky130_fd_sc_hd__buf_1
*CAP
1 rst_n 0.00034108
2 *148:A 0
3 *8:11 0.00034108
4 *8:11 sum 6.23473e-05
5 *8:11 *14:8 0
6 *8:11 *20:8 9.07675e-05
7 *8:11 *22:10 4.82774e-05
8 cout *8:11 0
*RES
1 rst_n *8:11 27.2482 
2 *8:11 *148:A 23 
*END

*D_NET *9 0.0016504
*CONN
*P sum O
*I *150:X O *D sky130_fd_sc_hd__buf_2
*CAP
1 sum 0.000100747
2 *150:X 0.000449194
3 *9:10 0.000549941
4 *9:10 *149:A 2.93747e-05
5 *9:10 *150:A 5.97178e-05
6 *9:10 *22:10 0.000311893
7 cout sum 5.99754e-05
8 *6:11 *9:10 2.72055e-05
9 *8:11 sum 6.23473e-05
*RES
1 *150:X *9:10 47.2075 
2 *9:10 sum 8.58613 
*END

*D_NET *10 0.000729322
*CONN
*I *138:A1 I *D sky130_fd_sc_hd__o21ai_1
*I *135:Y O *D sky130_fd_sc_hd__inv_2
*CAP
1 *138:A1 0
2 *135:Y 0.000214081
3 *10:8 0.000214081
4 *10:8 *138:A2 1.03836e-05
5 *10:8 *138:B1 0.000103647
6 *10:8 *139:A 0.000187129
*RES
1 *135:Y *10:8 27.93 
2 *10:8 *138:A1 23 
*END

*D_NET *11 0.00137402
*CONN
*I *138:B1 I *D sky130_fd_sc_hd__o21ai_1
*I *136:Y O *D sky130_fd_sc_hd__nand2_1
*CAP
1 *138:B1 8.38431e-05
2 *136:Y 0.000408668
3 *11:10 0.000492511
4 *138:B1 *138:A2 0.000229534
5 *138:B1 *16:6 7.51453e-06
6 *138:B1 *23:6 4.8303e-05
7 *10:8 *138:B1 0.000103647
*RES
1 *136:Y *11:10 43.3857 
2 *11:10 *138:B1 41.48 
*END

*D_NET *12 0.00111106
*CONN
*I *138:A2 I *D sky130_fd_sc_hd__o21ai_1
*I *139:B I *D sky130_fd_sc_hd__xnor2_1
*I *137:Y O *D sky130_fd_sc_hd__xnor2_1
*CAP
1 *138:A2 0.00010471
2 *139:B 2.34823e-05
3 *137:Y 0.000116581
4 *12:6 0.000244773
5 *138:A2 *139:A 3.22879e-05
6 *138:A2 *23:6 0.00014428
7 *12:6 *139:A 0.00010655
8 *12:6 *18:16 9.84794e-05
9 *138:B1 *138:A2 0.000229534
10 *10:8 *138:A2 1.03836e-05
*RES
1 *137:Y *12:6 26.0036 
2 *12:6 *139:B 23.4971 
3 *12:6 *138:A2 26.48 
*END

*D_NET *13 0.00358918
*CONN
*I *144:A I *D sky130_fd_sc_hd__clkbuf_16
*I *143:A I *D sky130_fd_sc_hd__clkbuf_16
*I *142:X O *D sky130_fd_sc_hd__clkbuf_16
*CAP
1 *144:A 0
2 *143:A 0
3 *142:X 0.000138189
4 *13:21 0.000543964
5 *13:12 0.000620356
6 *13:8 0.00130251
7 *13:12 *23:12 0.000158914
8 *13:21 *141:CLK 0.000786872
9 *13:21 *23:12 3.83778e-05
*RES
1 *142:X *13:8 39.5743 
2 *13:8 *13:12 27.47 
3 *13:12 *143:A 23 
4 *13:8 *13:21 28.5264 
5 *13:21 *144:A 23 
*END

*D_NET *14 0.0019448
*CONN
*I *140:CLK I *D sky130_fd_sc_hd__dfrtp_1
*I *143:X O *D sky130_fd_sc_hd__clkbuf_16
*CAP
1 *140:CLK 0.000605232
2 *143:X 0.000367166
3 *14:8 0.000972399
4 *14:8 *20:8 0
5 *8:11 *14:8 0
*RES
1 *143:X *14:8 44.8357 
2 *14:8 *140:CLK 46.1407 
*END

*D_NET *15 0.00267409
*CONN
*I *141:CLK I *D sky130_fd_sc_hd__dfrtp_1
*I *144:X O *D sky130_fd_sc_hd__clkbuf_16
*CAP
1 *141:CLK 0.000378495
2 *144:X 0.000565117
3 *15:8 0.000943611
4 *13:21 *141:CLK 0.000786872
*RES
1 *144:X *15:8 45.2914 
2 *15:8 *141:CLK 48.3571 
*END

*D_NET *16 0.00166877
*CONN
*I *141:D I *D sky130_fd_sc_hd__dfrtp_1
*I *138:Y O *D sky130_fd_sc_hd__o21ai_1
*CAP
1 *141:D 0
2 *138:Y 0.000661825
3 *16:6 0.000661825
4 *16:6 *23:6 0.000337605
5 *138:B1 *16:6 7.51453e-06
*RES
1 *138:Y *16:6 36.485 
2 *16:6 *141:D 23 
*END

*D_NET *17 0.00124598
*CONN
*I *136:B I *D sky130_fd_sc_hd__nand2_1
*I *137:B I *D sky130_fd_sc_hd__xnor2_1
*I *145:X O *D sky130_fd_sc_hd__buf_1
*CAP
1 *136:B 0.000136547
2 *137:B 0
3 *145:X 0.000283389
4 *17:14 0.000203055
5 *17:8 0.000622991
6 *17:14 *18:16 0
*RES
1 *145:X *17:8 28.2821 
2 *17:8 *17:14 32.9621 
3 *17:14 *137:B 23 
4 *17:8 *136:B 25.5271 
*END

*D_NET *18 0.00149438
*CONN
*I *137:A I *D sky130_fd_sc_hd__xnor2_1
*I *136:A I *D sky130_fd_sc_hd__nand2_1
*I *146:X O *D sky130_fd_sc_hd__buf_1
*CAP
1 *137:A 4.01155e-05
2 *136:A 0
3 *146:X 0.000293988
4 *18:16 0.000363848
5 *18:6 0.000697951
6 *12:6 *18:16 9.84794e-05
7 *17:14 *18:16 0
*RES
1 *146:X *18:6 27.9093 
2 *18:6 *18:16 35.7586 
3 *18:16 *136:A 23 
4 *18:6 *137:A 23.8493 
*END

*D_NET *19 0.00183933
*CONN
*I *139:A I *D sky130_fd_sc_hd__xnor2_1
*I *135:A I *D sky130_fd_sc_hd__inv_2
*I *147:X O *D sky130_fd_sc_hd__buf_1
*CAP
1 *139:A 5.05443e-05
2 *135:A 0
3 *147:X 0.000706135
4 *19:12 5.05443e-05
5 *19:10 0.000706135
6 *138:A2 *139:A 3.22879e-05
7 *10:8 *139:A 0.000187129
8 *12:6 *139:A 0.00010655
*RES
1 *147:X *19:10 47.6736 
2 *19:10 *19:12 15 
3 *19:12 *135:A 23 
4 *19:12 *139:A 25.5271 
*END

*D_NET *20 0.00149806
*CONN
*I *141:RESET_B I *D sky130_fd_sc_hd__dfrtp_1
*I *140:RESET_B I *D sky130_fd_sc_hd__dfrtp_1
*I *148:X O *D sky130_fd_sc_hd__buf_1
*CAP
1 *141:RESET_B 0.000329869
2 *140:RESET_B 9.41912e-05
3 *148:X 0.000122326
4 *20:8 0.000546386
5 *140:RESET_B *22:10 6.17437e-06
6 *141:RESET_B *22:10 5.19255e-05
7 *20:8 *22:10 3.35885e-06
8 *6:11 *141:RESET_B 0.000253061
9 *8:11 *20:8 9.07675e-05
10 *14:8 *20:8 0
*RES
1 *148:X *20:8 40.61 
2 *20:8 *140:RESET_B 16.5018 
3 *20:8 *141:RESET_B 22.4054 
*END

*D_NET *21 0.000454083
*CONN
*I *149:A I *D sky130_fd_sc_hd__buf_2
*I *141:Q O *D sky130_fd_sc_hd__dfrtp_1
*CAP
1 *149:A 1.80505e-05
2 *141:Q 9.74425e-05
3 *21:8 0.000115493
4 *149:A *150:A 5.50049e-05
5 *6:11 *21:8 0.000138718
6 *9:10 *149:A 2.93747e-05
*RES
1 *141:Q *21:8 39.9057 
2 *21:8 *149:A 38.6214 
*END

*D_NET *22 0.00191825
*CONN
*I *150:A I *D sky130_fd_sc_hd__buf_2
*I *140:Q O *D sky130_fd_sc_hd__dfrtp_1
*CAP
1 *150:A 0.000157676
2 *140:Q 0.000397765
3 *22:10 0.000555441
4 cout *150:A 5.3304e-05
5 cout *22:10 2.05503e-05
6 *140:RESET_B *22:10 6.17437e-06
7 *141:RESET_B *22:10 5.19255e-05
8 *149:A *150:A 5.50049e-05
9 *6:11 *22:10 0.00019716
10 *8:11 *22:10 4.82774e-05
11 *9:10 *150:A 5.97178e-05
12 *9:10 *22:10 0.000311893
13 *20:8 *22:10 3.35885e-06
*RES
1 *140:Q *22:10 47.8186 
2 *22:10 *150:A 41.0243 
*END

*D_NET *23 0.00326463
*CONN
*I *140:D I *D sky130_fd_sc_hd__dfrtp_1
*I *139:Y O *D sky130_fd_sc_hd__xnor2_1
*CAP
1 *140:D 0
2 *139:Y 0.00105167
3 *23:12 0.000216911
4 *23:6 0.00126858
5 *138:A2 *23:6 0.00014428
6 *138:B1 *23:6 4.8303e-05
7 *13:12 *23:12 0.000158914
8 *13:21 *23:12 3.83778e-05
9 *16:6 *23:6 0.000337605
*RES
1 *139:Y *23:6 38.8671 
2 *23:6 *23:12 35.075 
3 *23:12 *140:D 23 
*END
