*SPEF "ieee 1481-1999"
*DESIGN "FA_Reg"
*DATE "14:30:45 Saturday March 28, 2026"
*VENDOR "The OpenROAD Project"
*PROGRAM "OpenROAD"
*VERSION "edf00dff99f6c40d67a30c0e22a8191c5d2ed9d6"
*DESIGN_FLOW "NAME_SCOPE LOCAL" "PIN_CAP NONE"
*DIVIDER /
*DELIMITER :
*BUS_DELIMITER []
*T_UNIT 1 NS
*C_UNIT 1 PF
*R_UNIT 1 OHM
*L_UNIT 1 HENRY

*NAME_MAP
*3 a
*4 b
*5 cin
*6 clk
*7 cout
*8 rst_n
*9 sum
*10 _0_
*11 _1_
*12 _2_
*13 clknet_0_clk
*14 clknet_1_0__leaf_clk
*15 clknet_1_1__leaf_clk
*16 cout_comb
*17 net1
*18 net2
*19 net3
*20 net4
*21 net5
*22 net6
*23 sum_comb
*24 FILLER_0_15
*25 FILLER_0_27
*26 FILLER_0_29
*27 FILLER_0_3
*28 FILLER_0_41
*29 FILLER_0_53
*30 FILLER_0_57
*31 FILLER_0_80
*32 FILLER_1_15
*33 FILLER_1_27
*34 FILLER_1_3
*35 FILLER_1_39
*36 FILLER_1_51
*37 FILLER_1_55
*38 FILLER_1_57
*39 FILLER_1_69
*40 FILLER_2_15
*41 FILLER_2_27
*42 FILLER_2_29
*43 FILLER_2_3
*44 FILLER_2_41
*45 FILLER_2_53
*46 FILLER_2_65
*47 FILLER_2_77
*48 FILLER_3_15
*49 FILLER_3_27
*50 FILLER_3_3
*51 FILLER_3_39
*52 FILLER_3_51
*53 FILLER_3_55
*54 FILLER_3_57
*55 FILLER_3_79
*56 FILLER_4_18
*57 FILLER_4_22
*58 FILLER_4_29
*59 FILLER_4_41
*60 FILLER_4_53
*61 FILLER_4_59
*62 FILLER_4_6
*63 FILLER_4_80
*64 FILLER_5_12
*65 FILLER_5_20
*66 FILLER_5_35
*67 FILLER_5_47
*68 FILLER_5_55
*69 FILLER_5_57
*70 FILLER_5_6
*71 FILLER_5_79
*72 FILLER_6_18
*73 FILLER_6_26
*74 FILLER_6_29
*75 FILLER_6_41
*76 FILLER_6_53
*77 FILLER_6_6
*78 FILLER_6_65
*79 FILLER_7_15
*80 FILLER_7_27
*81 FILLER_7_3
*82 FILLER_7_39
*83 FILLER_7_51
*84 FILLER_7_55
*85 FILLER_7_57
*86 FILLER_7_69
*87 FILLER_8_15
*88 FILLER_8_27
*89 FILLER_8_29
*90 FILLER_8_3
*91 FILLER_8_41
*92 FILLER_8_53
*93 FILLER_8_65
*94 FILLER_8_77
*95 FILLER_9_15
*96 FILLER_9_27
*97 FILLER_9_29
*98 FILLER_9_3
*99 FILLER_9_41
*100 FILLER_9_53
*101 FILLER_9_57
*102 FILLER_9_80
*103 PHY_EDGE_ROW_0_Left_10
*104 PHY_EDGE_ROW_0_Right_0
*105 PHY_EDGE_ROW_1_Left_11
*106 PHY_EDGE_ROW_1_Right_1
*107 PHY_EDGE_ROW_2_Left_12
*108 PHY_EDGE_ROW_2_Right_2
*109 PHY_EDGE_ROW_3_Left_13
*110 PHY_EDGE_ROW_3_Right_3
*111 PHY_EDGE_ROW_4_Left_14
*112 PHY_EDGE_ROW_4_Right_4
*113 PHY_EDGE_ROW_5_Left_15
*114 PHY_EDGE_ROW_5_Right_5
*115 PHY_EDGE_ROW_6_Left_16
*116 PHY_EDGE_ROW_6_Right_6
*117 PHY_EDGE_ROW_7_Left_17
*118 PHY_EDGE_ROW_7_Right_7
*119 PHY_EDGE_ROW_8_Left_18
*120 PHY_EDGE_ROW_8_Right_8
*121 PHY_EDGE_ROW_9_Left_19
*122 PHY_EDGE_ROW_9_Right_9
*123 TAP_TAPCELL_ROW_0_20
*124 TAP_TAPCELL_ROW_0_21
*125 TAP_TAPCELL_ROW_1_22
*126 TAP_TAPCELL_ROW_2_23
*127 TAP_TAPCELL_ROW_3_24
*128 TAP_TAPCELL_ROW_4_25
*129 TAP_TAPCELL_ROW_5_26
*130 TAP_TAPCELL_ROW_6_27
*131 TAP_TAPCELL_ROW_7_28
*132 TAP_TAPCELL_ROW_8_29
*133 TAP_TAPCELL_ROW_9_30
*134 TAP_TAPCELL_ROW_9_31
*135 _3_
*136 _4_
*137 _5_
*138 _6_
*139 _7_
*140 _8_
*141 _9_
*142 clkbuf_0_clk
*143 clkbuf_1_0__f_clk
*144 clkbuf_1_1__f_clk
*145 input1
*146 input2
*147 input3
*148 input4
*149 output5
*150 output6

*PORTS
a I
b I
cin I
clk I
cout O
rst_n I
sum O

*D_NET *3 0.000688268
*CONN
*P a I
*I *145:A I *D sky130_fd_sc_hd__buf_1
*CAP
1 a 0.000329138
2 *145:A 0.000329138
3 *145:A *146:A 2.99915e-05
*RES
1 a *145:A 21.6946 
*END

*D_NET *4 0.000670164
*CONN
*P b I
*I *146:A I *D sky130_fd_sc_hd__buf_1
*CAP
1 b 0.000305702
2 *146:A 0.000305702
3 *146:A *147:A 2.87684e-05
4 *145:A *146:A 2.99915e-05
*RES
1 b *146:A 21.391 
*END

*D_NET *5 0.00053091
*CONN
*P cin I
*I *147:A I *D sky130_fd_sc_hd__buf_1
*CAP
1 cin 0.000251071
2 *147:A 0.000251071
3 *146:A *147:A 2.87684e-05
*RES
1 cin *147:A 18.73 
*END

*D_NET *6 0.00156542
*CONN
*P clk I
*I *142:A I *D sky130_fd_sc_hd__clkbuf_16
*CAP
1 clk 0.000450374
2 *142:A 0.000450374
3 *142:A cout 9.54267e-05
4 *142:A sum 2.6949e-05
5 *142:A *141:RESET_B 0.000227729
6 *142:A *149:A 0.000125724
7 *142:A *150:A 0.000188839
*RES
1 clk *142:A 25.1771 
*END

*D_NET *7 0.000667035
*CONN
*P cout O
*I *149:X O *D sky130_fd_sc_hd__buf_2
*CAP
1 cout 0.00021774
2 *149:X 0.00021774
3 cout sum 6.37342e-05
4 cout *148:A 0
5 cout *150:A 7.2394e-05
6 *142:A cout 9.54267e-05
*RES
1 *149:X cout 18.6586 
*END

*D_NET *8 0.000812987
*CONN
*P rst_n I
*I *148:A I *D sky130_fd_sc_hd__buf_1
*CAP
1 rst_n 0.000307916
2 *148:A 0.000307916
3 *148:A sum 6.63071e-05
4 *148:A *140:CLK 0
5 *148:A *150:A 4.38265e-05
6 *148:A *20:8 8.70215e-05
7 cout *148:A 0
*RES
1 rst_n *148:A 20.855 
*END

*D_NET *9 0.00150162
*CONN
*P sum O
*I *150:X O *D sky130_fd_sc_hd__buf_2
*CAP
1 sum 0.000487382
2 *150:X 0.000487382
3 sum *149:A 2.89016e-05
4 sum *150:A 0.00034096
5 cout sum 6.37342e-05
6 *142:A sum 2.6949e-05
7 *148:A sum 6.63071e-05
*RES
1 *150:X sum 25.6394 
*END

*D_NET *10 0.000706174
*CONN
*I *138:A1 I *D sky130_fd_sc_hd__o21ai_1
*I *135:Y O *D sky130_fd_sc_hd__inv_2
*CAP
1 *138:A1 0.00020255
2 *135:Y 0.00020255
3 *138:A1 *138:A2 1.02821e-05
4 *138:A1 *138:B1 0.000102207
5 *138:A1 *139:A 0.000188586
*RES
1 *135:Y *138:A1 22.85 
*END

*D_NET *11 0.00130178
*CONN
*I *138:B1 I *D sky130_fd_sc_hd__o21ai_1
*I *136:Y O *D sky130_fd_sc_hd__nand2_1
*CAP
1 *138:B1 0.000457843
2 *136:Y 0.000457843
3 *138:B1 *138:A2 0.000230206
4 *138:B1 *140:D 4.64819e-05
5 *138:B1 *141:D 7.20217e-06
6 *138:A1 *138:B1 0.000102207
*RES
1 *136:Y *138:B1 35.2429 
*END

*D_NET *12 0.0010739
*CONN
*I *138:A2 I *D sky130_fd_sc_hd__o21ai_1
*I *139:B I *D sky130_fd_sc_hd__xnor2_1
*I *137:Y O *D sky130_fd_sc_hd__xnor2_1
*CAP
1 *138:A2 9.51092e-05
2 *139:B 2.23854e-05
3 *137:Y 0.00010893
4 *12:6 0.000226425
5 *138:A2 *139:A 3.18676e-05
6 *138:A2 *140:D 0.000144497
7 *12:6 *136:A 9.90367e-05
8 *12:6 *139:A 0.000105163
9 *138:A1 *138:A2 1.02821e-05
10 *138:B1 *138:A2 0.000230206
*RES
1 *137:Y *12:6 11.8893 
2 *12:6 *139:B 9.72857 
3 *12:6 *138:A2 12.3 
*END

*D_NET *13 0.00323143
*CONN
*I *144:A I *D sky130_fd_sc_hd__clkbuf_16
*I *143:A I *D sky130_fd_sc_hd__clkbuf_16
*I *142:X O *D sky130_fd_sc_hd__clkbuf_16
*CAP
1 *144:A 0.000478401
2 *143:A 0.000560321
3 *142:X 0.000128144
4 *13:8 0.00116687
5 *143:A *140:D 0.000152108
6 *144:A *140:D 3.69697e-05
7 *144:A *141:CLK 0.000708622
*RES
1 *142:X *13:8 15.1571 
2 *13:8 *143:A 24.55 
3 *13:8 *144:A 25.4607 
*END

*D_NET *14 0.00183692
*CONN
*I *140:CLK I *D sky130_fd_sc_hd__dfrtp_1
*I *143:X O *D sky130_fd_sc_hd__clkbuf_16
*CAP
1 *140:CLK 0.000918459
2 *143:X 0.000918459
3 *140:CLK *20:8 0
4 *148:A *140:CLK 0
*RES
1 *143:X *140:CLK 40.5107 
*END

*D_NET *15 0.002472
*CONN
*I *141:CLK I *D sky130_fd_sc_hd__dfrtp_1
*I *144:X O *D sky130_fd_sc_hd__clkbuf_16
*CAP
1 *141:CLK 0.000881687
2 *144:X 0.000881687
3 *144:A *141:CLK 0.000708622
*RES
1 *144:X *141:CLK 42.8143 
*END

*D_NET *16 0.00157727
*CONN
*I *141:D I *D sky130_fd_sc_hd__dfrtp_1
*I *138:Y O *D sky130_fd_sc_hd__o21ai_1
*CAP
1 *141:D 0.0006139
2 *138:Y 0.0006139
3 *141:D *140:D 0.000342268
4 *138:B1 *141:D 7.20217e-06
*RES
1 *138:Y *141:D 30.225 
*END

*D_NET *17 0.00115227
*CONN
*I *136:B I *D sky130_fd_sc_hd__nand2_1
*I *137:B I *D sky130_fd_sc_hd__xnor2_1
*I *145:X O *D sky130_fd_sc_hd__buf_1
*CAP
1 *136:B 0.000128573
2 *137:B 0.000179036
3 *145:X 0.000268525
4 *17:8 0.000576135
5 *137:B *136:A 0
*RES
1 *145:X *17:8 13.8536 
2 *17:8 *137:B 20.8536 
3 *17:8 *136:B 11.4786 
*END

*D_NET *18 0.00141449
*CONN
*I *137:A I *D sky130_fd_sc_hd__xnor2_1
*I *136:A I *D sky130_fd_sc_hd__nand2_1
*I *146:X O *D sky130_fd_sc_hd__buf_1
*CAP
1 *137:A 3.82418e-05
2 *136:A 0.000341884
3 *146:X 0.000277601
4 *18:6 0.000657727
5 *137:B *136:A 0
6 *12:6 *136:A 9.90367e-05
*RES
1 *146:X *18:6 13.5321 
2 *18:6 *136:A 23.2643 
3 *18:6 *137:A 10.0321 
*END

*D_NET *19 0.00177348
*CONN
*I *139:A I *D sky130_fd_sc_hd__xnor2_1
*I *135:A I *D sky130_fd_sc_hd__inv_2
*I *147:X O *D sky130_fd_sc_hd__buf_1
*CAP
1 *139:A 4.53007e-05
2 *135:A 0
3 *147:X 0.000678633
4 *19:12 0.000723934
5 *138:A1 *139:A 0.000188586
6 *138:A2 *139:A 3.18676e-05
7 *12:6 *139:A 0.000105163
*RES
1 *147:X *19:12 26.6393 
2 *19:12 *135:A 9.3 
3 *19:12 *139:A 11.4786 
*END

*D_NET *20 0.00134551
*CONN
*I *141:RESET_B I *D sky130_fd_sc_hd__dfrtp_1
*I *140:RESET_B I *D sky130_fd_sc_hd__dfrtp_1
*I *148:X O *D sky130_fd_sc_hd__buf_1
*CAP
1 *141:RESET_B 0.000294342
2 *140:RESET_B 8.72397e-05
3 *148:X 0.000103229
4 *20:8 0.000484811
5 *140:RESET_B *150:A 6.05161e-06
6 *141:RESET_B *150:A 5.16583e-05
7 *20:8 *150:A 3.4323e-06
8 *140:CLK *20:8 0
9 *142:A *141:RESET_B 0.000227729
10 *148:A *20:8 8.70215e-05
*RES
1 *148:X *20:8 16.05 
2 *20:8 *140:RESET_B 5.79464 
3 *20:8 *141:RESET_B 10.8839 
*END

*D_NET *21 0.000406463
*CONN
*I *149:A I *D sky130_fd_sc_hd__buf_2
*I *141:Q O *D sky130_fd_sc_hd__dfrtp_1
*CAP
1 *149:A 9.83068e-05
2 *141:Q 9.83068e-05
3 *149:A *150:A 5.52238e-05
4 sum *149:A 2.89016e-05
5 *142:A *149:A 0.000125724
*RES
1 *141:Q *149:A 29.7786 
*END

*D_NET *22 0.00170918
*CONN
*I *150:A I *D sky130_fd_sc_hd__buf_2
*I *140:Q O *D sky130_fd_sc_hd__dfrtp_1
*CAP
1 *150:A 0.000473397
2 *140:Q 0.000473397
3 cout *150:A 7.2394e-05
4 sum *150:A 0.00034096
5 *140:RESET_B *150:A 6.05161e-06
6 *141:RESET_B *150:A 5.16583e-05
7 *142:A *150:A 0.000188839
8 *148:A *150:A 4.38265e-05
9 *149:A *150:A 5.52238e-05
10 *20:8 *150:A 3.4323e-06
*RES
1 *140:Q *150:A 38.6714 
*END

*D_NET *23 0.00310809
*CONN
*I *140:D I *D sky130_fd_sc_hd__dfrtp_1
*I *139:Y O *D sky130_fd_sc_hd__xnor2_1
*CAP
1 *140:D 0.00119288
2 *139:Y 0.00119288
3 *138:A2 *140:D 0.000144497
4 *138:B1 *140:D 4.64819e-05
5 *141:D *140:D 0.000342268
6 *143:A *140:D 0.000152108
7 *144:A *140:D 3.69697e-05
*RES
1 *139:Y *140:D 45.6536 
*END
