*SPEF "ieee 1481-1999"
*DESIGN "FA_Reg"
*DATE "14:30:45 Saturday March 28, 2026"
*VENDOR "The OpenROAD Project"
*PROGRAM "OpenROAD"
*VERSION "edf00dff99f6c40d67a30c0e22a8191c5d2ed9d6"
*DESIGN_FLOW "NAME_SCOPE LOCAL" "PIN_CAP NONE"
*DIVIDER /
*DELIMITER :
*BUS_DELIMITER []
*T_UNIT 1 NS
*C_UNIT 1 PF
*R_UNIT 1 OHM
*L_UNIT 1 HENRY

*NAME_MAP
*3 a
*4 b
*5 cin
*6 clk
*7 cout
*8 rst_n
*9 sum
*10 _0_
*11 _1_
*12 _2_
*13 clknet_0_clk
*14 clknet_1_0__leaf_clk
*15 clknet_1_1__leaf_clk
*16 cout_comb
*17 net1
*18 net2
*19 net3
*20 net4
*21 net5
*22 net6
*23 sum_comb
*24 FILLER_0_15
*25 FILLER_0_27
*26 FILLER_0_29
*27 FILLER_0_3
*28 FILLER_0_41
*29 FILLER_0_53
*30 FILLER_0_57
*31 FILLER_0_80
*32 FILLER_1_15
*33 FILLER_1_27
*34 FILLER_1_3
*35 FILLER_1_39
*36 FILLER_1_51
*37 FILLER_1_55
*38 FILLER_1_57
*39 FILLER_1_69
*40 FILLER_2_15
*41 FILLER_2_27
*42 FILLER_2_29
*43 FILLER_2_3
*44 FILLER_2_41
*45 FILLER_2_53
*46 FILLER_2_65
*47 FILLER_2_77
*48 FILLER_3_15
*49 FILLER_3_27
*50 FILLER_3_3
*51 FILLER_3_39
*52 FILLER_3_51
*53 FILLER_3_55
*54 FILLER_3_57
*55 FILLER_3_79
*56 FILLER_4_18
*57 FILLER_4_22
*58 FILLER_4_29
*59 FILLER_4_41
*60 FILLER_4_53
*61 FILLER_4_59
*62 FILLER_4_6
*63 FILLER_4_80
*64 FILLER_5_12
*65 FILLER_5_20
*66 FILLER_5_35
*67 FILLER_5_47
*68 FILLER_5_55
*69 FILLER_5_57
*70 FILLER_5_6
*71 FILLER_5_79
*72 FILLER_6_18
*73 FILLER_6_26
*74 FILLER_6_29
*75 FILLER_6_41
*76 FILLER_6_53
*77 FILLER_6_6
*78 FILLER_6_65
*79 FILLER_7_15
*80 FILLER_7_27
*81 FILLER_7_3
*82 FILLER_7_39
*83 FILLER_7_51
*84 FILLER_7_55
*85 FILLER_7_57
*86 FILLER_7_69
*87 FILLER_8_15
*88 FILLER_8_27
*89 FILLER_8_29
*90 FILLER_8_3
*91 FILLER_8_41
*92 FILLER_8_53
*93 FILLER_8_65
*94 FILLER_8_77
*95 FILLER_9_15
*96 FILLER_9_27
*97 FILLER_9_29
*98 FILLER_9_3
*99 FILLER_9_41
*100 FILLER_9_53
*101 FILLER_9_57
*102 FILLER_9_80
*103 PHY_EDGE_ROW_0_Left_10
*104 PHY_EDGE_ROW_0_Right_0
*105 PHY_EDGE_ROW_1_Left_11
*106 PHY_EDGE_ROW_1_Right_1
*107 PHY_EDGE_ROW_2_Left_12
*108 PHY_EDGE_ROW_2_Right_2
*109 PHY_EDGE_ROW_3_Left_13
*110 PHY_EDGE_ROW_3_Right_3
*111 PHY_EDGE_ROW_4_Left_14
*112 PHY_EDGE_ROW_4_Right_4
*113 PHY_EDGE_ROW_5_Left_15
*114 PHY_EDGE_ROW_5_Right_5
*115 PHY_EDGE_ROW_6_Left_16
*116 PHY_EDGE_ROW_6_Right_6
*117 PHY_EDGE_ROW_7_Left_17
*118 PHY_EDGE_ROW_7_Right_7
*119 PHY_EDGE_ROW_8_Left_18
*120 PHY_EDGE_ROW_8_Right_8
*121 PHY_EDGE_ROW_9_Left_19
*122 PHY_EDGE_ROW_9_Right_9
*123 TAP_TAPCELL_ROW_0_20
*124 TAP_TAPCELL_ROW_0_21
*125 TAP_TAPCELL_ROW_1_22
*126 TAP_TAPCELL_ROW_2_23
*127 TAP_TAPCELL_ROW_3_24
*128 TAP_TAPCELL_ROW_4_25
*129 TAP_TAPCELL_ROW_5_26
*130 TAP_TAPCELL_ROW_6_27
*131 TAP_TAPCELL_ROW_7_28
*132 TAP_TAPCELL_ROW_8_29
*133 TAP_TAPCELL_ROW_9_30
*134 TAP_TAPCELL_ROW_9_31
*135 _3_
*136 _4_
*137 _5_
*138 _6_
*139 _7_
*140 _8_
*141 _9_
*142 clkbuf_0_clk
*143 clkbuf_1_0__f_clk
*144 clkbuf_1_1__f_clk
*145 input1
*146 input2
*147 input3
*148 input4
*149 output5
*150 output6

*PORTS
a I
b I
cin I
clk I
cout O
rst_n I
sum O

*D_NET *3 0.000641155
*CONN
*P a I
*I *145:A I *D sky130_fd_sc_hd__buf_1
*CAP
1 a 0.000305759
2 *145:A 0.000305759
3 *145:A *146:A 2.96366e-05
*RES
1 a *145:A 7.8543 
*END

*D_NET *4 0.000623243
*CONN
*P b I
*I *146:A I *D sky130_fd_sc_hd__buf_1
*CAP
1 b 0.00028255
2 *146:A 0.00028255
3 *146:A *147:A 2.85068e-05
4 *145:A *146:A 2.96366e-05
*RES
1 b *146:A 7.5993 
*END

*D_NET *5 0.000500287
*CONN
*P cin I
*I *147:A I *D sky130_fd_sc_hd__buf_1
*CAP
1 cin 0.00023589
2 *147:A 0.00023589
3 *146:A *147:A 2.85068e-05
*RES
1 cin *147:A 5.35677 
*END

*D_NET *6 0.00144103
*CONN
*P clk I
*I *142:A I *D sky130_fd_sc_hd__clkbuf_16
*CAP
1 clk 0.000405127
2 *142:A 0.000405127
3 *142:A cout 9.41287e-05
4 *142:A sum 2.75538e-05
5 *142:A *141:RESET_B 0.000210839
6 *142:A *149:A 0.000116158
7 *142:A *150:A 0.000182096
*RES
1 clk *142:A 10.77 
*END

*D_NET *7 0.000612519
*CONN
*P cout O
*I *149:X O *D sky130_fd_sc_hd__buf_2
*CAP
1 cout 0.000195301
2 *149:X 0.000195301
3 cout sum 6.35417e-05
4 cout *148:A 0
5 cout *150:A 6.42458e-05
6 *142:A cout 9.41287e-05
*RES
1 *149:X cout 5.29677 
*END

*D_NET *8 0.000754568
*CONN
*P rst_n I
*I *148:A I *D sky130_fd_sc_hd__buf_1
*CAP
1 rst_n 0.000282024
2 *148:A 0.000282024
3 *148:A sum 6.59989e-05
4 *148:A *140:CLK 0
5 *148:A *150:A 4.01548e-05
6 *148:A *20:8 8.43665e-05
7 cout *148:A 0
*RES
1 rst_n *148:A 7.14177 
*END

*D_NET *9 0.00138086
*CONN
*P sum O
*I *150:X O *D sky130_fd_sc_hd__buf_2
*CAP
1 sum 0.000439704
2 *150:X 0.000439704
3 sum *149:A 2.75145e-05
4 sum *150:A 0.000316841
5 cout sum 6.35417e-05
6 *142:A sum 2.75538e-05
7 *148:A sum 6.59989e-05
*RES
1 *150:X sum 11.1652 
*END

*D_NET *10 0.000646198
*CONN
*I *138:A1 I *D sky130_fd_sc_hd__o21ai_1
*I *135:Y O *D sky130_fd_sc_hd__inv_2
*CAP
1 *138:A1 0.000187456
2 *135:Y 0.000187456
3 *138:A1 *138:A2 9.80032e-06
4 *138:A1 *138:B1 9.66106e-05
5 *138:A1 *139:A 0.000164874
*RES
1 *135:Y *138:A1 6.77 
*END

*D_NET *11 0.00116435
*CONN
*I *138:B1 I *D sky130_fd_sc_hd__o21ai_1
*I *136:Y O *D sky130_fd_sc_hd__nand2_1
*CAP
1 *138:B1 0.000408321
2 *136:Y 0.000408321
3 *138:B1 *138:A2 0.000200992
4 *138:B1 *140:D 4.34042e-05
5 *138:B1 *141:D 6.69608e-06
6 *138:A1 *138:B1 9.66106e-05
*RES
1 *136:Y *138:B1 13.62 
*END

*D_NET *12 0.000968458
*CONN
*I *138:A2 I *D sky130_fd_sc_hd__o21ai_1
*I *139:B I *D sky130_fd_sc_hd__xnor2_1
*I *137:Y O *D sky130_fd_sc_hd__xnor2_1
*CAP
1 *138:A2 8.66785e-05
2 *139:B 2.08101e-05
3 *137:Y 0.00010044
4 *12:6 0.000207929
5 *138:A2 *139:A 3.00381e-05
6 *138:A2 *140:D 0.000126054
7 *12:6 *136:A 8.65905e-05
8 *12:6 *139:A 9.91257e-05
9 *138:A1 *138:A2 9.80032e-06
10 *138:B1 *138:A2 0.000200992
*RES
1 *137:Y *12:6 3.775 
2 *12:6 *139:B 1.96 
3 *12:6 *138:A2 4.12 
*END

*D_NET *13 0.00294835
*CONN
*I *144:A I *D sky130_fd_sc_hd__clkbuf_16
*I *143:A I *D sky130_fd_sc_hd__clkbuf_16
*I *142:X O *D sky130_fd_sc_hd__clkbuf_16
*CAP
1 *144:A 0.000431156
2 *143:A 0.000511262
3 *142:X 0.000112329
4 *13:8 0.00105475
5 *143:A *140:D 0.000146149
6 *144:A *140:D 3.67779e-05
7 *144:A *141:CLK 0.000655925
*RES
1 *142:X *13:8 4.74 
2 *13:8 *143:A 12.63 
3 *13:8 *144:A 13.395 
*END

*D_NET *14 0.00165479
*CONN
*I *140:CLK I *D sky130_fd_sc_hd__dfrtp_1
*I *143:X O *D sky130_fd_sc_hd__clkbuf_16
*CAP
1 *140:CLK 0.000827393
2 *143:X 0.000827393
3 *140:CLK *20:8 0
4 *148:A *140:CLK 0
*RES
1 *143:X *140:CLK 18.045 
*END

*D_NET *15 0.00223333
*CONN
*I *141:CLK I *D sky130_fd_sc_hd__dfrtp_1
*I *144:X O *D sky130_fd_sc_hd__clkbuf_16
*CAP
1 *141:CLK 0.0007887
2 *144:X 0.0007887
3 *144:A *141:CLK 0.000655925
*RES
1 *144:X *141:CLK 19.98 
*END

*D_NET *16 0.00147733
*CONN
*I *141:D I *D sky130_fd_sc_hd__dfrtp_1
*I *138:Y O *D sky130_fd_sc_hd__o21ai_1
*CAP
1 *141:D 0.000561568
2 *138:Y 0.000561568
3 *141:D *140:D 0.000347496
4 *138:B1 *141:D 6.69608e-06
*RES
1 *138:Y *141:D 12.965 
*END

*D_NET *17 0.00106143
*CONN
*I *136:B I *D sky130_fd_sc_hd__nand2_1
*I *137:B I *D sky130_fd_sc_hd__xnor2_1
*I *145:X O *D sky130_fd_sc_hd__buf_1
*CAP
1 *136:B 0.000119793
2 *137:B 0.000160398
3 *145:X 0.000250523
4 *17:8 0.000530714
5 *137:B *136:A 0
*RES
1 *145:X *17:8 5.425 
2 *17:8 *137:B 7.745 
3 *17:8 *136:B 3.43 
*END

*D_NET *18 0.00128457
*CONN
*I *137:A I *D sky130_fd_sc_hd__xnor2_1
*I *136:A I *D sky130_fd_sc_hd__nand2_1
*I *146:X O *D sky130_fd_sc_hd__buf_1
*CAP
1 *137:A 3.55506e-05
2 *136:A 0.000306044
3 *146:X 0.000257396
4 *18:6 0.00059899
5 *137:B *136:A 0
6 *12:6 *136:A 8.65905e-05
*RES
1 *146:X *18:6 5.155 
2 *18:6 *136:A 9.77 
3 *18:6 *137:A 2.215 
*END

*D_NET *19 0.00158845
*CONN
*I *139:A I *D sky130_fd_sc_hd__xnor2_1
*I *135:A I *D sky130_fd_sc_hd__inv_2
*I *147:X O *D sky130_fd_sc_hd__buf_1
*CAP
1 *139:A 4.09921e-05
2 *135:A 0
3 *147:X 0.000606214
4 *19:12 0.000647206
5 *138:A1 *139:A 0.000164874
6 *138:A2 *139:A 3.00381e-05
7 *12:6 *139:A 9.91257e-05
*RES
1 *147:X *19:12 12.605 
2 *19:12 *135:A 1.6 
3 *19:12 *139:A 3.43 
*END

*D_NET *20 0.00123328
*CONN
*I *141:RESET_B I *D sky130_fd_sc_hd__dfrtp_1
*I *140:RESET_B I *D sky130_fd_sc_hd__dfrtp_1
*I *148:X O *D sky130_fd_sc_hd__buf_1
*CAP
1 *141:RESET_B 0.000266943
2 *140:RESET_B 8.02192e-05
3 *148:X 9.06468e-05
4 *20:8 0.000437809
5 *140:RESET_B *150:A 5.83121e-06
6 *141:RESET_B *150:A 5.3023e-05
7 *20:8 *150:A 3.60648e-06
8 *140:CLK *20:8 0
9 *142:A *141:RESET_B 0.000210839
10 *148:A *20:8 8.43665e-05
*RES
1 *148:X *20:8 5.49 
2 *20:8 *140:RESET_B 3.0875 
3 *20:8 *141:RESET_B 7.3625 
*END

*D_NET *21 0.000362237
*CONN
*I *149:A I *D sky130_fd_sc_hd__buf_2
*I *141:Q O *D sky130_fd_sc_hd__dfrtp_1
*CAP
1 *149:A 8.51389e-05
2 *141:Q 8.51389e-05
3 *149:A *150:A 4.82863e-05
4 sum *149:A 2.75145e-05
5 *142:A *149:A 0.000116158
*RES
1 *141:Q *149:A 9.03 
*END

*D_NET *22 0.00155056
*CONN
*I *150:A I *D sky130_fd_sc_hd__buf_2
*I *140:Q O *D sky130_fd_sc_hd__dfrtp_1
*CAP
1 *150:A 0.000418236
2 *140:Q 0.000418236
3 cout *150:A 6.42458e-05
4 sum *150:A 0.000316841
5 *140:RESET_B *150:A 5.83121e-06
6 *141:RESET_B *150:A 5.3023e-05
7 *142:A *150:A 0.000182096
8 *148:A *150:A 4.01548e-05
9 *149:A *150:A 4.82863e-05
10 *20:8 *150:A 3.60648e-06
*RES
1 *140:Q *150:A 16.5 
*END

*D_NET *23 0.00279265
*CONN
*I *140:D I *D sky130_fd_sc_hd__dfrtp_1
*I *139:Y O *D sky130_fd_sc_hd__xnor2_1
*CAP
1 *140:D 0.00104638
2 *139:Y 0.00104638
3 *138:A2 *140:D 0.000126054
4 *138:B1 *140:D 4.34042e-05
5 *141:D *140:D 0.000347496
6 *143:A *140:D 0.000146149
7 *144:A *140:D 3.67779e-05
*RES
1 *139:Y *140:D 22.365 
*END
